@<TRIPOS>MOLECULE
D:1FM9
    68    72     1     0     0
SMALL
NO_CHARGES
****
Generated from the CSD

@<TRIPOS>ATOM
     1 N       14.6302  -6.6231  12.2970   N.pl3     1 570200   0.0000
     2 CA      15.1752  -5.2871  12.7430   C.3       1 570200   0.0000
     3 CB      14.0592  -4.2801  13.1630   C.3       1 570200   0.0000
     4 CG      13.0211  -3.9941  12.0720   C.ar      1 570200   0.0000
     5 CD1     11.7641  -4.6811  12.1280   C.ar      1 570200   0.0000
     6 CD2     13.2851  -3.0650  11.0120   C.ar      1 570200   0.0000
     7 CE1     10.7801  -4.4501  11.1480   C.ar      1 570200   0.0000
     8 CE2     12.3041  -2.8260  10.0230   C.ar      1 570200   0.0000
     9 CZ      11.0161  -3.5280  10.0790   C.ar      1 570200   0.0000
    10 OH       9.9371  -3.3850   9.1550   O.3       1 570200   0.0000
    11 C1A     15.2242  -7.7671  11.6100   C.ar      1 570200   0.0000
    12 C1F     14.3952  -8.8861  11.1480   C.ar      1 570200   0.0000
    13 C1E     15.0702  -9.9721  10.4770   C.ar      1 570200   0.0000
    14 C1D     16.4702  -9.9631  10.2740   C.ar      1 570200   0.0000
    15 C1C     17.2492  -8.8821  10.7250   C.ar      1 570200   0.0000
    16 C1B     16.6462  -7.8051  11.3780   C.ar      1 570200   0.0000
    17 C1H     11.8911 -10.1701  10.9450   C.ar      1 570200   0.0000
    18 C1I     10.5891  -9.8871  10.3830   C.ar      1 570200   0.0000
    19 C1J      9.7041 -10.9481  10.0350   C.ar      1 570200   0.0000
    20 C1K     10.1071 -12.3002  10.2430   C.ar      1 570200   0.0000
    21 C1L     11.3871 -12.5882  10.7970   C.ar      1 570200   0.0000
    22 C1M     12.2691 -11.5352  11.1440   C.ar      1 570200   0.0000
    23 C1G     12.8221  -9.0231  11.3070   C.2       1 570200   0.0000
    24 O1G     12.2121  -8.0261  11.7450   O.2       1 570200   0.0000
    25 O3F      8.6791  -6.3111   5.5150   O.3       1 570200   0.0000
    26 C3G      9.4631  -5.6751   4.5590   C.2       1 570200   0.0000
    27 N3H      9.6211  -4.3511   5.0320   N.2       1 570200   0.0000
    28 C3C      8.9301  -4.2571   6.2210   C.2       1 570200   0.0000
    29 C3D      8.3001  -5.5051   6.5670   C.2       1 570200   0.0000
    30 C3E      7.4351  -5.8571   7.7840   C.3       1 570200   0.0000
    31 C3I      9.9911  -6.1961   3.3780   C.ar      1 570200   0.0000
    32 C3N     10.7851  -5.4041   2.4690   C.ar      1 570200   0.0000
    33 C3M     11.2941  -5.9841   1.2780   C.ar      1 570200   0.0000
    34 C3L     11.0231  -7.3441   0.9760   C.ar      1 570200   0.0000
    35 C3K     10.2441  -8.1371   1.8620   C.ar      1 570200   0.0000
    36 C3J      9.7291  -7.5691   3.0540   C.ar      1 570200   0.0000
    37 C3A     10.1331  -2.6860   7.9020   C.3       1 570200   0.0000
    38 C3B      8.8861  -2.9130   7.0260   C.3       1 570200   0.0000
    39 H       13.6487  -6.7528  12.5208   H         1 570200   0.0000
    40 H       15.6946  -4.8522  11.8903   H         1 570200   0.0000
    41 H       14.5346  -3.3391  13.4359   H         1 570200   0.0000
    42 H       13.5398  -4.6887  14.0286   H         1 570200   0.0000
    43 H       11.5690  -5.3866  12.9343   H         1 570200   0.0000
    44 H       14.2406  -2.5442  10.9691   H         1 570200   0.0000
    45 H        9.8295  -4.9784  11.2039   H         1 570200   0.0000
    46 H       12.5041  -2.1201   9.2183   H         1 570200   0.0000
    47 H       14.4870 -10.8190  10.1184   H         1 570200   0.0000
    48 H       16.9481 -10.7989   9.7651   H         1 570200   0.0000
    49 H       18.3263  -8.8852  10.5644   H         1 570200   0.0000
    50 H       17.2639  -6.9758  11.7194   H         1 570200   0.0000
    51 H       10.2824  -8.8543  10.2244   H         1 570200   0.0000
    52 H        8.7250 -10.7278   9.6124   H         1 570200   0.0000
    53 H        9.4344 -13.1144   9.9776   H         1 570200   0.0000
    54 H       11.6893 -13.6225  10.9546   H         1 570200   0.0000
    55 H       13.2454 -11.7675  11.5668   H         1 570200   0.0000
    56 H        7.9078  -6.6622   8.3447   H         1 570200   0.0000
    57 H        7.3334  -4.9809   8.4227   H         1 570200   0.0000
    58 H        6.4500  -6.1780   7.4486   H         1 570200   0.0000
    59 H       10.9938  -4.3600   2.6976   H         1 570200   0.0000
    60 H       11.8937  -5.3846   0.5946   H         1 570200   0.0000
    61 H       11.4146  -7.7830   0.0595   H         1 570200   0.0000
    62 H       10.0431  -9.1808   1.6249   H         1 570200   0.0000
    63 H        9.1303  -8.1791   3.7288   H         1 570200   0.0000
    64 H       11.0153  -3.0758   7.3962   H         1 570200   0.0000
    65 H       10.2631  -1.6213   8.0899   H         1 570200   0.0000
    66 H        8.0084  -2.9248   7.6706   H         1 570200   0.0000
    67 H        8.8060  -2.0889   6.3186   H         1 570200   0.0000
    68 H30     15.8730  -5.4295  13.5669   H         1 570200   0.0000
@<TRIPOS>BOND
     1     1     2    1
     2     2     3    1
     3     3     4    1
     4     4     5   ar
     5     4     6   ar
     6     5     7   ar
     7     6     8   ar
     8     7     9   ar
     9     8     9   ar
    10     9    10    1
    11     1    11    1
    12    11    12   ar
    13    12    13   ar
    14    13    14   ar
    15    14    15   ar
    16    11    16   ar
    17    15    16   ar
    18    17    18   ar
    19    18    19   ar
    20    19    20   ar
    21    20    21   ar
    22    17    22   ar
    23    21    22   ar
    24    12    23    1
    25    17    23    1
    26    23    24    2
    27    25    26    1
    28    26    27    2
    29    27    28    1
    30    25    29    1
    31    28    29    2
    32    29    30    1
    33    26    31    1
    34    31    32   ar
    35    32    33   ar
    36    33    34   ar
    37    34    35   ar
    38    31    36   ar
    39    35    36   ar
    40    10    37    1
    41    28    38    1
    42    37    38    1
    43     1    39    1
    44     2    40    1
    45     3    41    1
    46     3    42    1
    47     5    43    1
    48     6    44    1
    49     7    45    1
    50     8    46    1
    51    13    47    1
    52    14    48    1
    53    15    49    1
    54    16    50    1
    55    18    51    1
    56    19    52    1
    57    20    53    1
    58    21    54    1
    59    22    55    1
    60    30    56    1
    61    30    57    1
    62    30    58    1
    63    32    59    1
    64    33    60    1
    65    34    61    1
    66    35    62    1
    67    36    63    1
    68    37    64    1
    69    37    65    1
    70    38    66    1
    71    38    67    1
    72     2    68    1
@<TRIPOS>SUBSTRUCTURE
     1 570200      1 GROUP             0 D     570     0  
