@<TRIPOS>MOLECULE
5LMA
    45    47     1     0     0
SMALL
USER_CHARGES
****
Generated from the CSD

@<TRIPOS>ATOM
     1 N1       1.5996  -2.2037  -0.4523   N.ar      1 RES1   0.0000
     2 C2       2.1640  -3.3762  -0.6790   C.ar      1 RES1   0.0000
     3 C3       1.4404  -4.5418  -0.8501   C.ar      1 RES1   0.0000
     4 N4       0.1214  -4.5827  -0.8016   N.ar      1 RES1   0.0000
     5 C5      -0.5065  -3.3947  -0.5696   C.ar      1 RES1   0.0000
     6 C6      -1.9405  -3.2828  -0.4899   C.ar      1 RES1   0.0000
     7 N7      -2.7103  -4.3665  -0.6447   N.pl3     1 RES1   0.0000
     8 C8      -4.1618  -4.3238  -0.5758   C.3       1 RES1   0.0000
     9 C9      -4.7605  -5.7003  -0.7885   C.3       1 RES1   0.0000
    10 C10     -6.2787  -5.7042  -0.7249   C.3       1 RES1   0.0000
    11 C11     -6.8632  -7.0776  -0.9377   C.3       1 RES1   0.0000
    12 N12     -8.3459  -7.0580  -0.8714   N.4       1 RES1   1.0000
    13 N13     -2.5415  -2.1214  -0.2635   N.ar      1 RES1   0.0000
    14 C14     -1.8281  -0.9913  -0.0981   C.ar      1 RES1   0.0000
    15 C15     -2.6356   0.2341   0.1480   C.ar      1 RES1   0.0000
    16 C16     -2.0244   1.4707   0.3362   C.ar      1 RES1   0.0000
    17 C17     -2.7720   2.6121   0.5656   C.ar      1 RES1   0.0000
    18 C18     -4.1559   2.5669   0.6175   C.ar      1 RES1   0.0000
    19 C19     -4.9687   3.8142   0.8644   C.3       1 RES1   0.0000
    20 C20     -4.7683   1.3382   0.4293   C.ar      1 RES1   0.0000
    21 C21     -4.0262   0.1932   0.1995   C.ar      1 RES1   0.0000
    22 C22     -0.4605  -0.9892  -0.1554   C.ar      1 RES1   0.0000
    23 C23      0.2322  -2.1963  -0.3934   C.ar      1 RES1   0.0000
    24 H1      -5.8508   1.2726   0.4629   H         1 RES1   0.0000
    25 H2      -4.5419  -0.7502   0.0576   H         1 RES1   0.0000
    26 H3      -4.4549   4.6920   0.4783   H         1 RES1   0.0000
    27 H4      -5.9380   3.7461   0.3748   H         1 RES1   0.0000
    28 H5      -5.1365   3.9607   1.9293   H         1 RES1   0.0000
    29 H6      -2.2648   3.5607   0.7076   H         1 RES1   0.0000
    30 H7       0.0937  -0.0670  -0.0192   H         1 RES1   0.0000
    31 H8      -0.9426   1.5447   0.3030   H         1 RES1   0.0000
    32 H9       3.2465  -3.4270  -0.7334   H         1 RES1   0.0000
    33 H10     -4.3696  -6.3816  -0.0227   H         1 RES1   0.0000
    34 H11     -4.4435  -6.0797  -1.7678   H         1 RES1   0.0000
    35 H12     -2.2621  -5.2463  -0.9005   H         1 RES1   0.0000
    36 H13     -6.6718  -5.0243  -1.4908   H         1 RES1   0.0000
    37 H14     -6.5978  -5.3261   0.2542   H         1 RES1   0.0000
    38 H15     -6.4745  -7.7606  -0.1723   H         1 RES1   0.0000
    39 H16     -6.5484  -7.4589  -1.9169   H         1 RES1   0.0000
    40 H17      1.9807  -5.4648  -1.0325   H         1 RES1   0.0000
    41 H18     -4.5463  -3.6370  -1.3399   H         1 RES1   0.0000
    42 H19     -4.4696  -3.9391   0.4043   H         1 RES1   0.0000
    43 H20     -8.7391  -6.4306  -1.6017   H         1 RES1   0.0000
    44 H21     -8.7340  -8.0114  -1.0199   H         1 RES1   0.0000
    45 H22     -8.6688  -6.7175   0.0566   H         1 RES1   0.0000
@<TRIPOS>BOND
     1     1     2   ar
     2     2     3   ar
     3     3     4   ar
     4     4     5   ar
     5     5     6   ar
     6     6     7    1
     7     7     8    1
     8     8     9    1
     9     9    10    1
    10    10    11    1
    11    11    12    1
    12     6    13   ar
    13    13    14   ar
    14    14    15    1
    15    15    16   ar
    16    16    17   ar
    17    17    18   ar
    18    18    19    1
    19    18    20   ar
    20    20    21   ar
    21    14    22   ar
    22    22    23   ar
    23    23     1   ar
    24    23     5   ar
    25    21    15   ar
    26    20    24    1
    27    21    25    1
    28    19    26    1
    29    19    27    1
    30    19    28    1
    31    17    29    1
    32    22    30    1
    33    16    31    1
    34     2    32    1
    35     9    33    1
    36     9    34    1
    37     7    35    1
    38    10    36    1
    39    10    37    1
    40    11    38    1
    41    11    39    1
    42     3    40    1
    43     8    41    1
    44     8    42    1
    45    12    43    1
    46    12    44    1
    47    12    45    1
@<TRIPOS>SUBSTRUCTURE
     1 RES1        1 GROUP             0 ****  ****    0  
@<TRIPOS>CRYSIN
    1.0000    1.0000    1.0000   90.0000   90.0000   90.0000     1     1
@<TRIPOS>COMMENT
> <index>
0

> <name>
5LMA

@<TRIPOS>MOLECULE
5LMA_1
    49    52     1     0     0
SMALL
USER_CHARGES
****
Generated from the CSD

@<TRIPOS>ATOM
     1 N1      -5.9769  -1.6984   6.2291   N.ar      1 RES1   0.0000
     2 C2      -7.1518  -1.5452   5.6455   C.ar      1 RES1   0.0000
     3 C3      -7.2936  -1.1993   4.3145   C.ar      1 RES1   0.0000
     4 N4      -6.2654  -0.9924   3.5122   N.ar      1 RES1   0.0000
     5 C5      -5.0299  -1.1390   4.0703   C.ar      1 RES1   0.0000
     6 C6      -3.8180  -0.9447   3.3154   C.ar      1 RES1   0.0000
     7 N7      -3.9043  -0.6060   2.0122   N.pl3     1 RES1   0.0000
     8 C8      -2.7132  -0.3954   1.1961   C.3       1 RES1   0.0000
     9 C9      -3.1123  -0.5509  -0.2491   C.3       1 RES1   0.0000
    10 C10     -4.0102   0.5823  -0.7252   C.3       1 RES1   0.0000
    11 C11     -2.1067   0.9655   1.4447   C.3       1 RES1   0.0000
    12 C12     -3.0170   2.0871   0.9862   C.3       1 RES1   0.0000
    13 C13     -3.3980   1.9366  -0.4684   C.3       1 RES1   0.0000
    14 N14     -4.3092   3.0319  -0.9186   N.4       1 RES1   1.0000
    15 N15     -2.6226  -1.0913   3.8738   N.ar      1 RES1   0.0000
    16 C16     -2.4927  -1.4284   5.1710   C.ar      1 RES1   0.0000
    17 C17     -1.0906  -1.5554   5.6528   C.ar      1 RES1   0.0000
    18 C18     -0.8004  -1.8980   6.9705   C.ar      1 RES1   0.0000
    19 C19      0.5068  -2.0133   7.4092   C.ar      1 RES1   0.0000
    20 C20      1.5748  -1.7915   6.5546   C.ar      1 RES1   0.0000
    21 C21      2.9992  -1.9216   7.0356   C.3       1 RES1   0.0000
    22 C22      1.2901  -1.4516   5.2417   C.ar      1 RES1   0.0000
    23 C23     -0.0149  -1.3347   4.7972   C.ar      1 RES1   0.0000
    24 C24     -3.5824  -1.6350   5.9726   C.ar      1 RES1   0.0000
    25 C25     -4.8804  -1.4939   5.4360   C.ar      1 RES1   0.0000
    26 H1      -8.0476  -1.6979   6.2384   H         1 RES1   0.0000
    27 H2      -4.8221  -0.5749   1.5685   H         1 RES1   0.0000
    28 H3      -1.9774  -1.1595   1.4427   H         1 RES1   0.0000
    29 H4      -3.6458  -1.4931  -0.3658   H         1 RES1   0.0000
    30 H5      -2.2120  -0.5653  -0.8616   H         1 RES1   0.0000
    31 H6      -4.9616   0.5213  -0.1988   H         1 RES1   0.0000
    32 H7      -4.1795   0.4705  -1.7951   H         1 RES1   0.0000
    33 H8      -1.1644   1.0344   0.9033   H         1 RES1   0.0000
    34 H9      -1.9212   1.0778   2.5119   H         1 RES1   0.0000
    35 H10     -2.5017   3.0371   1.1198   H         1 RES1   0.0000
    36 H11     -3.9223   2.0769   1.5913   H         1 RES1   0.0000
    37 H12     -8.2951  -1.0931   3.9108   H         1 RES1   0.0000
    38 H13     -2.4848   2.0034  -1.0578   H         1 RES1   0.0000
    39 H14     -1.6095  -2.0788   7.6695   H         1 RES1   0.0000
    40 H15     -5.2123   2.9948  -0.4042   H         1 RES1   0.0000
    41 H16     -3.8778   3.9630  -0.7494   H         1 RES1   0.0000
    42 H17     -4.5116   2.9484  -1.9353   H         1 RES1   0.0000
    43 H18      0.6993  -2.2826   8.4424   H         1 RES1   0.0000
    44 H19     -3.4552  -1.9059   7.0149   H         1 RES1   0.0000
    45 H20      3.0707  -2.6563   7.8349   H         1 RES1   0.0000
    46 H21      3.6526  -2.2378   6.2252   H         1 RES1   0.0000
    47 H22      3.3664  -0.9706   7.4156   H         1 RES1   0.0000
    48 H23     -0.1992  -1.0661   3.7623   H         1 RES1   0.0000
    49 H24      2.1061  -1.2736   4.5492   H         1 RES1   0.0000
@<TRIPOS>BOND
     1     1     2   ar
     2     2     3   ar
     3     3     4   ar
     4     4     5   ar
     5     5     6   ar
     6     6     7    1
     7     7     8    1
     8     8     9    1
     9     9    10    1
    10     8    11    1
    11    11    12    1
    12    12    13    1
    13    13    14    1
    14     6    15   ar
    15    15    16   ar
    16    16    17    1
    17    17    18   ar
    18    18    19   ar
    19    19    20   ar
    20    20    21    1
    21    20    22   ar
    22    22    23   ar
    23    16    24   ar
    24    24    25   ar
    25    25     1   ar
    26    25     5   ar
    27    13    10    1
    28    23    17   ar
    29     2    26    1
    30     7    27    1
    31     8    28    1
    32     9    29    1
    33     9    30    1
    34    10    31    1
    35    10    32    1
    36    11    33    1
    37    11    34    1
    38    12    35    1
    39    12    36    1
    40     3    37    1
    41    13    38    1
    42    18    39    1
    43    14    40    1
    44    14    41    1
    45    14    42    1
    46    19    43    1
    47    24    44    1
    48    21    45    1
    49    21    46    1
    50    21    47    1
    51    23    48    1
    52    22    49    1
@<TRIPOS>SUBSTRUCTURE
     1 RES1        1 GROUP             0 ****  ****    0  
@<TRIPOS>CRYSIN
    1.0000    1.0000    1.0000   90.0000   90.0000   90.0000     1     1
@<TRIPOS>COMMENT
> <index>
1

> <name>
5LMA_1

@<TRIPOS>MOLECULE
5LMA_2
    50    53     1     0     0
SMALL
USER_CHARGES
****
Generated from the CSD

@<TRIPOS>ATOM
     1 N1      -0.9268  -2.2466   0.0214   N.ar      1 RES1   0.0000
     2 C2      -1.5335  -3.4194   0.0548   C.ar      1 RES1   0.0000
     3 C3      -0.8523  -4.6224   0.0392   C.ar      1 RES1   0.0000
     4 N4       0.4649  -4.7020  -0.0104   N.ar      1 RES1   0.0000
     5 C5       1.1356  -3.5153  -0.0463   C.ar      1 RES1   0.0000
     6 C6       2.5733  -3.4433  -0.1018   C.ar      1 RES1   0.0000
     7 N7       3.3039  -4.5644  -0.1201   N.pl3     1 RES1   0.0000
     8 C8       4.7566  -4.5622  -0.1759   C.3       1 RES1   0.0000
     9 C9       5.2780  -5.9893  -0.1835   C.3       1 RES1   0.0000
    10 C10      6.7905  -6.0670  -0.2408   C.3       1 RES1   0.0000
    11 O11      7.3194  -5.4053   0.9040   O.3       1 RES1   0.0000
    12 C12      8.7442  -5.4243   0.8698   C.3       1 RES1   0.0000
    13 C13      9.2562  -6.8384   0.9041   C.3       1 RES1   0.0000
    14 C14      7.2194  -7.5057  -0.2860   C.3       1 RES1   0.0000
    15 N15      8.7005  -7.5866  -0.2488   N.4       1 RES1   1.0000
    16 N16      3.2163  -2.2829  -0.1366   N.ar      1 RES1   0.0000
    17 C17      2.5441  -1.1161  -0.1211   C.ar      1 RES1   0.0000
    18 C18      3.3957   0.1033  -0.1643   C.ar      1 RES1   0.0000
    19 C19      2.8295   1.3750  -0.1538   C.ar      1 RES1   0.0000
    20 C20      3.6182   2.5111  -0.1943   C.ar      1 RES1   0.0000
    21 C21      5.0002   2.4255  -0.2477   C.ar      1 RES1   0.0000
    22 C22      5.8580   3.6664  -0.2882   C.3       1 RES1   0.0000
    23 C23      5.5679   1.1614  -0.2569   C.ar      1 RES1   0.0000
    24 C24      4.7845   0.0216  -0.2166   C.ar      1 RES1   0.0000
    25 C25      1.1768  -1.0745  -0.0692   C.ar      1 RES1   0.0000
    26 C26      0.4405  -2.2786  -0.0306   C.ar      1 RES1   0.0000
    27 H1       5.3726   4.4879   0.2346   H         1 RES1   0.0000
    28 H2       6.8208   3.4853   0.1850   H         1 RES1   0.0000
    29 H3       6.0381   3.9774  -1.3151   H         1 RES1   0.0000
    30 H4       5.2659  -0.9501  -0.2261   H         1 RES1   0.0000
    31 H5       0.6562  -0.1232  -0.0576   H         1 RES1   0.0000
    32 H6       6.6477   1.0635  -0.2966   H         1 RES1   0.0000
    33 H7       7.1406  -5.5613  -1.1395   H         1 RES1   0.0000
    34 H8       1.7506   1.4813  -0.1132   H         1 RES1   0.0000
    35 H9       8.9453  -7.3159   1.8321   H         1 RES1   0.0000
    36 H10     10.3436  -6.8334   0.8450   H         1 RES1   0.0000
    37 H11      5.1625  -4.0243   0.6898   H         1 RES1   0.0000
    38 H12      5.0920  -4.0399  -1.0804   H         1 RES1   0.0000
    39 H13      3.1456   3.4876  -0.1841   H         1 RES1   0.0000
    40 H14     -2.6175  -3.4396   0.0963   H         1 RES1   0.0000
    41 H15     -1.4260  -5.5428   0.0692   H         1 RES1   0.0000
    42 H16      4.8605  -6.5171  -1.0498   H         1 RES1   0.0000
    43 H17      4.9286  -6.5016   0.7214   H         1 RES1   0.0000
    44 H18      9.1301  -4.8830   1.7324   H         1 RES1   0.0000
    45 H19      9.0866  -4.9418  -0.0444   H         1 RES1   0.0000
    46 H20      2.8235  -5.4574  -0.0098   H         1 RES1   0.0000
    47 H21      6.8547  -7.9637  -1.2043   H         1 RES1   0.0000
    48 H22      6.8062  -8.0339   0.5720   H         1 RES1   0.0000
    49 H23      8.9759  -8.5606  -0.1737   H         1 RES1   0.0000
    50 H24      9.0739  -7.1946  -1.1074   H         1 RES1   0.0000
@<TRIPOS>BOND
     1     1     2   ar
     2     2     3   ar
     3     3     4   ar
     4     4     5   ar
     5     5     6   ar
     6     6     7    1
     7     7     8    1
     8     8     9    1
     9     9    10    1
    10    10    11    1
    11    11    12    1
    12    12    13    1
    13    10    14    1
    14    14    15    1
    15     6    16   ar
    16    16    17   ar
    17    17    18    1
    18    18    19   ar
    19    19    20   ar
    20    20    21   ar
    21    21    22    1
    22    21    23   ar
    23    23    24   ar
    24    17    25   ar
    25    25    26   ar
    26    26     1   ar
    27    26     5   ar
    28    15    13    1
    29    24    18   ar
    30    22    27    1
    31    22    28    1
    32    22    29    1
    33    24    30    1
    34    25    31    1
    35    23    32    1
    36    10    33    1
    37    19    34    1
    38    13    35    1
    39    13    36    1
    40     8    37    1
    41     8    38    1
    42    20    39    1
    43     2    40    1
    44     3    41    1
    45     9    42    1
    46     9    43    1
    47    12    44    1
    48    12    45    1
    49     7    46    1
    50    14    47    1
    51    14    48    1
    52    15    49    1
    53    15    50    1
@<TRIPOS>SUBSTRUCTURE
     1 RES1        1 GROUP             0 ****  ****    0  
@<TRIPOS>CRYSIN
    1.0000    1.0000    1.0000   90.0000   90.0000   90.0000     1     1
@<TRIPOS>COMMENT
> <index>
2

> <name>
5LMA_2

