# MOL_START
# Creating user name: Hermes
# Creation time: Wed Jun  8 11:07:33 2022

@<TRIPOS>MOLECULE
DINXIJ
    67    71     1     0     1
SMALL
USER_CHARGES
****
Generated from the CSD

@<TRIPOS>ATOM
     1 C1      -6.3414  -5.2222  26.7834   C.ar      1 0      0.0000
     2 C2      -5.3381  -4.3034  26.4841   C.ar      1 0      0.0000
     3 H3      -4.6632  -4.1209  27.0983   H         1 0      0.0000
     4 C4      -5.3688  -3.6699  25.2462   C.ar      1 0      0.0000
     5 C5      -6.3541  -4.0027  24.3569   C.ar      1 0      0.0000
     6 H6      -6.3617  -3.6025  23.5156   H         1 0      0.0000
     7 C7      -7.3366  -4.9153  24.6783   C.ar      1 0      0.0000
     8 H8      -8.0092  -5.1102  24.0670   H         1 0      0.0000
     9 C9      -7.3228  -5.5395  25.9020   C.ar      1 0      0.0000
    10 H10     -7.9733  -6.1659  26.1223   H         1 0      0.0000
    11 C11     -4.3562  -2.6007  24.9631   C.3       1 0      0.0000
    12 H12     -4.7413  -1.7276  25.1374   H         1 0      0.0000
    13 H13     -3.5865  -2.7148  25.5414   H         1 0      0.0000
    14 C14     -2.9359  -1.8589  23.2217   C.ar      1 0      0.0000
    15 C15     -2.4317  -0.8198  23.9860   C.ar      1 0      0.0000
    16 H16     -2.8232  -0.6180  24.8042   H         1 0      0.0000
    17 C17     -1.3491  -0.0801  23.5404   C.ar      1 0      0.0000
    18 H18     -1.0299   0.6160  24.0670   H         1 0      0.0000
    19 C19     -0.7298  -0.3484  22.3365   C.ar      1 0      0.0000
    20 C20     -1.2554  -1.3589  21.5391   C.ar      1 0      0.0000
    21 H21     -0.8703  -1.5555  20.7174   H         1 0      0.0000
    22 C22     -2.3530  -2.0644  21.9809   C.ar      1 0      0.0000
    23 C23      1.0796   0.5521  20.8680   C.ar      1 0      0.0000
    24 C24      2.2287   1.4352  20.7875   C.ar      1 0      0.0000
    25 C25      2.7480   2.1857  21.8558   C.ar      1 0      0.0000
    26 H26      2.3276   2.1528  22.6841   H         1 0      0.0000
    27 C27      3.8670   2.9651  21.6957   C.ar      1 0      0.0000
    28 C28      4.5042   3.0076  20.4343   C.ar      1 0      0.0000
    29 H29      5.2583   3.5402  20.3193   H         1 0      0.0000
    30 C30      4.0266   2.2778  19.3857   C.ar      1 0      0.0000
    31 H31      4.4678   2.3042  18.5678   H         1 0      0.0000
    32 C32      2.8752   1.4870  19.5285   C.ar      1 0      0.0000
    33 C33      1.3798   0.0560  18.6713   C.ar      1 0      0.0000
    34 H34      1.0692  -0.4189  17.9338   H         1 0      0.0000
    35 C35      4.4753   3.7190  22.7876   C.2       1 0      0.0000
    36 C36      5.6544   4.3729  22.9082   C.2       1 0      0.0000
    37 H37      6.3148   4.4528  22.2595   H         1 0      0.0000
    38 C38      5.6856   4.9155  24.2224   C.2       1 0      0.0000
    39 H39      6.3738   5.4109  24.6037   H         1 0      0.0000
    40 C40      4.5331   4.5741  24.8024   C.2       1 0      0.0000
    41 C41      3.9843   4.7989  26.1680   C.3       1 0      0.0000
    42 H42      4.3122   5.6453  26.5115   H         1 0      0.0000
    43 H43      3.0169   4.8468  26.1252   H         1 0      0.0000
    44 C44      3.9878   3.9490  28.4912   C.3       1 0      0.0000
    45 H45      3.0204   3.9799  28.5549   H         1 0      0.0000
    46 H46      4.3394   4.8053  28.7849   H         1 0      0.0000
    47 C47      4.5245   2.8442  29.3826   C.3       1 0      0.0000
    48 H48      5.4896   2.9139  29.4484   H         1 0      0.0000
    49 H49      4.3070   1.9785  29.0031   H         1 0      0.0000
    50 C50      4.6910   1.8479  31.9683   C.3       1 0      0.0000
    51 H51      4.3909   1.8873  32.8777   H         1 0      0.0000
    52 H52      5.6261   2.0615  31.9311   H         1 0      0.0000
    53 H53      4.5511   0.9623  31.6245   H         1 0      0.0000
    54 Cl54    -3.0030  -3.3283  20.9653   Cl        1 0      0.0000
    55 F55     -6.3050  -5.8299  27.9746   F         1 0      0.0000
    56 N56      0.4083   0.4204  22.0298   N.pl3     1 0      0.0000
    57 H57      0.7055   0.8711  22.7018   H         1 0      0.0000
    58 N58      0.6737  -0.1234  19.7897   N.ar      1 0      0.0000
    59 N59      2.4328   0.7871  18.4425   N.ar      1 0      0.0000
    60 N60      4.3857   3.7001  27.0862   N.4       1 0      1.0000
    61 H61      5.2392   3.5050  27.0423   H         1 0      0.0000
    62 H62      3.9728   2.9533  26.8270   H         1 0      0.0000
    63 O63     -3.9537  -2.6868  23.6050   O.3       1 0      0.0000
    64 O64      3.7698   3.8192  23.9571   O.3       1 0      0.0000
    65 O65      2.4218   2.6115  30.9315   O.2       1 0      0.0000
    66 O66      4.0445   4.3242  31.4706   O.2       1 0      0.0000
    67 S67      3.7898   2.9973  31.0053   S.o2      1 0      0.0000
@<TRIPOS>BOND
     1     1     2   ar
     2     2     3    1
     3     4     2   ar
     4     5     4   ar
     5     6     5    1
     6     7     5   ar
     7     8     7    1
     8     9     1   ar
     9    10     9    1
    10    11     4    1
    11    12    11    1
    12    13    11    1
    13    14    15   ar
    14    15    16    1
    15    17    15   ar
    16    18    17    1
    17    19    17   ar
    18    20    19   ar
    19    21    20    1
    20    22    14   ar
    21    23    24   ar
    22    24    25   ar
    23    25    26    1
    24    27    25   ar
    25    28    27   ar
    26    29    28    1
    27    30    28   ar
    28    31    30    1
    29    32    24   ar
    30    33    34    1
    31    35    27    1
    32    36    35    2
    33    37    36    1
    34    38    36    1
    35    39    38    1
    36    40    38    2
    37    41    40    1
    38    42    41    1
    39    43    41    1
    40    44    45    1
    41    46    44    1
    42    47    44    1
    43    48    47    1
    44    49    47    1
    45    50    51    1
    46    52    50    1
    47    53    50    1
    48    54    22    1
    49    55     1    1
    50    56    19    1
    51    57    56    1
    52    58    23   ar
    53    59    32   ar
    54    60    41    1
    55    61    60    1
    56    62    60    1
    57    63    11    1
    58    64    35    1
    59    65    67    2
    60    66    67    2
    61    67    47    1
    62     7     9   ar
    63    14    63    1
    64    20    22   ar
    65    23    56    1
    66    30    32   ar
    67    33    58   ar
    68    33    59   ar
    69    40    64    1
    70    44    60    1
    71    50    67    1
@<TRIPOS>SUBSTRUCTURE
     1 0           1 GROUP             0 L_1   ****    0  
@<TRIPOS>SET
CCDC_LIGAND STATIC ATOMS
67 1 2 3 4 5 6 7 8 9 \
10 11 12 13 14 15 16 17 18 19 \
20 21 22 23 24 25 26 27 28 29 \
30 31 32 33 34 35 36 37 38 39 \
40 41 42 43 44 45 46 47 48 49 \
50 51 52 53 54 55 56 57 58 59 \
60 61 62 63 64 65 66 67 
# MOL_END

