# MOL_START
# Creating user name: Hermes
# Creation time: Wed Feb  3 09:38:09 2021

@<TRIPOS>MOLECULE
--CCDC--020321    3D
    10     9     1     0     1
SMALL
NO_CHARGES
****
Generated from the CSD

@<TRIPOS>ATOM
     1 O1       0.9915  -3.2165   1.4711   O.2       1 0      0.0000
     2 C2       1.9092  -3.5761   0.7457   C.2       1 0      0.0000
     3 C3       2.7664  -2.5622   0.0228   C.3       1 0      0.0000
     4 C4       2.3351  -1.1405   0.3215   C.3       1 0      0.0000
     5 S5       3.3096   0.0744  -0.5025   S.3       1 0      0.0000
     6 N6       2.1947  -4.8788   0.5791   N.am      1 0      0.0000
     7 H15      2.7359  -2.7344  -1.0601   H         1 0      0.0000
     8 H16      3.8054  -2.6932   0.3493   H         1 0      0.0000
     9 H17      2.4270  -0.9710   1.4014   H         1 0      0.0000
    10 H18      1.2778  -1.0146   0.0573   H         1 0      0.0000
@<TRIPOS>BOND
     1     1     2    2
     2     2     3    1
     3     3     4    1
     4     4     5    1
     5     6     2   am
     6     3     7    1
     7     3     8    1
     8     4     9    1
     9     4    10    1
@<TRIPOS>SUBSTRUCTURE
     1 0           1 GROUP             0 L_1   ****    0  
@<TRIPOS>SET
CCDC_LIGAND STATIC ATOMS
10 1 2 3 4 5 6 7 8 9 \
10 
# MOL_END

