@<TRIPOS>MOLECULE
A:5LMA
    45    47     1     0     1
SMALL
USER_CHARGES
****
Generated from the CSD

@<TRIPOS>ATOM
     1 C10     26.9763 -43.1756  34.9942   C.ar      1 6ZG701   0.0000
     2 C13     26.7604 -42.0345  32.5741   C.ar      1 6ZG701   0.0000
     3 C15     25.9034 -42.3185  34.6662   C.ar      1 6ZG701   0.0000
     4 C20     23.6793 -38.4994  36.8322   C.3       1 6ZG701   0.0000
     5 C21     24.4623 -37.5544  37.7082   C.3       1 6ZG701   0.0000
     6 C01     26.2021 -45.3807  42.6822   C.3       1 6ZG701   0.0000
     7 C02     26.1662 -44.8936  41.2542   C.ar      1 6ZG701   0.0000
     8 C03     27.0482 -45.3887  40.3082   C.ar      1 6ZG701   0.0000
     9 C04     27.0222 -44.9446  38.9972   C.ar      1 6ZG701   0.0000
    10 C05     26.0942 -43.9906  38.5862   C.ar      1 6ZG701   0.0000
    11 C06     25.2162 -43.4896  39.5442   C.ar      1 6ZG701   0.0000
    12 C07     25.2562 -43.9336  40.8502   C.ar      1 6ZG701   0.0000
    13 C08     26.0733 -43.4716  37.1962   C.ar      1 6ZG701   0.0000
    14 C09     27.0603 -43.7396  36.2842   C.ar      1 6ZG701   0.0000
    15 N11     27.9544 -43.4406  34.0772   N.ar      1 6ZG701   0.0000
    16 C12     27.8234 -42.8636  32.8931   C.ar      1 6ZG701   0.0000
    17 N14     25.7954 -41.7515  33.4342   N.ar      1 6ZG701   0.0000
    18 C16     24.9274 -42.0785  35.6912   C.ar      1 6ZG701   0.0000
    19 N17     23.8754 -41.2885  35.4632   N.pl3     1 6ZG701   0.0000
    20 C18     22.9324 -40.8905  36.4942   C.3       1 6ZG701   0.0000
    21 C19     23.5163 -39.8745  37.4532   C.3       1 6ZG701   0.0000
    22 N22     24.5153 -36.2063  37.1372   N.4       1 6ZG701   1.0000
    23 N23     25.0403 -42.6426  36.9082   N.ar      1 6ZG701   0.0000
    24 H911    24.2002 -38.6059  35.8818   H         1 6ZG701   0.0000
    25 H912    22.6910 -38.0760  36.6591   H         1 6ZG701   0.0000
    26 H913    24.4856 -42.7346  39.2578   H         1 6ZG701   0.0000
    27 H914    22.6381 -41.7743  37.0583   H         1 6ZG701   0.0000
    28 H915    22.0555 -40.4561  36.0165   H         1 6ZG701   0.0000
    29 H916    22.8553 -39.7903  38.3146   H         1 6ZG701   0.0000
    30 H917    24.4940 -40.2264  37.7789   H         1 6ZG701   0.0000
    31 H918    24.5580 -43.5202  41.5765   H         1 6ZG701   0.0000
    32 H919    23.5725 -35.8436  37.0381   H         1 6ZG701   0.0000
    33 H920    25.0485 -35.5993  37.7516   H         1 6ZG701   0.0000
    34 H921    24.9616 -36.2420  36.2263   H         1 6ZG701   0.0000
    35 H922    27.8992 -44.3802  36.5522   H         1 6ZG701   0.0000
    36 H927    25.4779 -37.9324  37.8161   H         1 6ZG701   0.0000
    37 H928    23.9875 -37.5049  38.6870   H         1 6ZG701   0.0000
    38 H930    23.7265 -40.9477  34.5188   H         1 6ZG701   0.0000
    39 H933    28.5846 -43.0488  32.1366   H         1 6ZG701   0.0000
    40 H934    27.7356 -45.3458  38.2789   H         1 6ZG701   0.0000
    41 H935    26.7173 -41.5988  31.5770   H         1 6ZG701   0.0000
    42 H936    27.1796 -45.1695  43.1133   H         1 6ZG701   0.0000
    43 H937    25.4328 -44.8699  43.2594   H         1 6ZG701   0.0000
    44 H938    26.0198 -46.4541  42.7043   H         1 6ZG701   0.0000
    45 H939    27.7771 -46.1427  40.6016   H         1 6ZG701   0.0000
@<TRIPOS>BOND
     1     1     3   ar
     2     4     5    1
     3     6     7    1
     4     7     8   ar
     5     8     9   ar
     6     9    10   ar
     7    10    11   ar
     8     7    12   ar
     9    11    12   ar
    10    10    13    1
    11     1    14   ar
    12    13    14   ar
    13     1    15   ar
    14     2    16   ar
    15    15    16   ar
    16     2    17   ar
    17     3    17   ar
    18     3    18   ar
    19    18    19    1
    20    19    20    1
    21     4    21    1
    22    20    21    1
    23     5    22    1
    24    13    23   ar
    25    18    23   ar
    26     4    24    1
    27     4    25    1
    28    11    26    1
    29    20    27    1
    30    20    28    1
    31    21    29    1
    32    21    30    1
    33    12    31    1
    34    22    32    1
    35    22    33    1
    36    22    34    1
    37    14    35    1
    38     5    36    1
    39     5    37    1
    40    19    38    1
    41    16    39    1
    42     9    40    1
    43     2    41    1
    44     6    42    1
    45     6    43    1
    46     6    44    1
    47     8    45    1
@<TRIPOS>SUBSTRUCTURE
     1 6ZG701      1 GROUP             0 A     6ZG     0  
@<TRIPOS>SET
CCDC_LIGAND STATIC ATOMS
45 1 2 3 4 5 6 7 8 9 \
10 11 12 13 14 15 16 17 18 19 \
20 21 22 23 24 25 26 27 28 29 \
30 31 32 33 34 35 36 37 38 39 \
40 41 42 43 44 45 
