@<TRIPOS>MOLECULE
1ett
    59    61     1     0     0
SMALL
USER_CHARGES
****
Generated from the CSD

@<TRIPOS>ATOM
     1 S1      -1.8955  -1.8955   0.1667   S.o2      1 RES1   0.0000
     2 O2      -2.8278  -1.1766  -0.6450   O.2       1 RES1   0.0000
     3 O3      -1.1766  -2.8278  -0.6450   O.2       1 RES1   0.0000
     4 C4      -2.7879  -2.7879   1.4641   C.2       1 RES1   0.0000
     5 C5      -3.7393  -3.7393   1.1105   C.2       1 RES1   0.0000
     6 C6      -4.4265  -4.4265   2.1060   C.2       1 RES1   0.0000
     7 C7      -4.1535  -4.1533   3.4424   C.2       1 RES1   0.0000
     8 C8      -3.2011  -3.2012   3.7911   C.2       1 RES1   0.0000
     9 C9      -2.5115  -2.5115   2.7991   C.2       1 RES1   0.0000
    10 C10     -4.8999  -4.9012   4.5353   C.3       1 RES1   0.0000
    11 N11      0.3536  -1.2243  -2.0950   N.am      1 RES1   0.0000
    12 C12      1.0483  -2.2466  -2.8949   C.3       1 RES1   0.0000
    13 C13      0.0817  -3.0688  -3.7353   C.3       1 RES1   0.0000
    14 C14     -0.9320  -2.2002  -4.4668   C.3       1 RES1   0.0000
    15 C15     -1.7428  -1.4790  -3.3991   C.3       1 RES1   0.0000
    16 C16     -0.8820  -0.5611  -2.5429   C.3       1 RES1   0.0000
    17 N17     -0.8487  -0.8487   0.8487   N.pl3     1 RES1   0.0000
    18 C18      0.0000   0.0000   0.0000   C.3       1 RES1   0.0000
    19 C19      0.8776  -0.8776  -0.8776   C.2       1 RES1   0.0000
    20 O20      1.9824  -1.2508  -0.5192   O.2       1 RES1   0.0000
    21 C21      0.8776   0.8776   0.8776   C.3       1 RES1   0.0000
    22 C22      1.7551   1.7551   0.0000   C.2       1 RES1   0.0000
    23 C23      3.0075   1.2978  -0.3976   C.2       1 RES1   0.0000
    24 C24      1.2888   3.0057  -0.3922   C.2       1 RES1   0.0000
    25 C25      3.8063   2.1050  -1.2008   C.2       1 RES1   0.0000
    26 C26      2.0922   3.8075  -1.1960   C.2       1 RES1   0.0000
    27 C27      3.3455   3.3564  -1.5968   C.2       1 RES1   0.0000
    28 C28      4.1814   4.1950  -2.4340   C.2       1 RES1   0.0000
    29 N29      3.7026   5.1485  -3.1228   N.pl3     1 RES1   1.0000
    30 N30      5.3234   3.9405  -2.4370   N.pl3     1 RES1   0.0000
    31 H31     -0.2339  -1.3886   1.4236   H         1 RES1   0.0000
    32 H32      4.3068   5.7081  -3.6901   H         1 RES1   0.0000
    33 H33      5.9546   4.4808  -2.9935   H         1 RES1   0.0000
    34 H34      5.6683   3.1827  -1.8830   H         1 RES1   0.0000
    35 H35      2.7214   5.3397  -3.0979   H         1 RES1   0.0000
    36 H36     -3.9281  -3.9281   0.1468   H         1 RES1   0.0000
    37 H37     -5.1123  -5.1124   1.8625   H         1 RES1   0.0000
    38 H38     -3.0122  -3.0125   4.7548   H         1 RES1   0.0000
    39 H39     -1.8258  -1.8256   3.0427   H         1 RES1   0.0000
    40 H40     -4.5846  -4.5856   5.4302   H         1 RES1   0.0000
    41 H41     -5.8809  -4.7281   4.4473   H         1 RES1   0.0000
    42 H42     -4.7253  -5.8819   4.4471   H         1 RES1   0.0000
    43 H43      1.5409  -2.8597  -2.2774   H         1 RES1   0.0000
    44 H44      1.6993  -1.7928  -3.5034   H         1 RES1   0.0000
    45 H45     -0.4095  -3.7000  -3.1351   H         1 RES1   0.0000
    46 H46      0.6050  -3.5895  -4.4099   H         1 RES1   0.0000
    47 H47     -1.5319  -2.7697  -5.0288   H         1 RES1   0.0000
    48 H48     -0.4613  -1.5369  -5.0485   H         1 RES1   0.0000
    49 H49     -2.1736  -2.1604  -2.8073   H         1 RES1   0.0000
    50 H50     -2.4498  -0.9317  -3.8469   H         1 RES1   0.0000
    51 H51     -0.6387   0.2468  -3.0795   H         1 RES1   0.0000
    52 H52     -1.4080  -0.2816  -1.7396   H         1 RES1   0.0000
    53 H53     -0.5774   0.5774  -0.5774   H         1 RES1   0.0000
    54 H54      1.4549   0.3002   1.4549   H         1 RES1   0.0000
    55 H55      0.3002   1.4549   1.4549   H         1 RES1   0.0000
    56 H56      3.3305   0.3967  -0.1085   H         1 RES1   0.0000
    57 H57      0.3871   3.3242  -0.0999   H         1 RES1   0.0000
    58 H58      4.7084   1.7869  -1.4926   H         1 RES1   0.0000
    59 H59      1.7688   4.7083  -1.4858   H         1 RES1   0.0000
@<TRIPOS>BOND
     1     1     2    2
     2     1     3    2
     3     1     4    1
     4     1    17    1
     5     4     5    2
     6     4     9    1
     7     5     6    1
     8     5    36    1
     9     6     7    2
    10     6    37    1
    11     7     8    1
    12     7    10    1
    13     8     9    2
    14     8    38    1
    15     9    39    1
    16    10    40    1
    17    10    41    1
    18    10    42    1
    19    11    12    1
    20    11    16    1
    21    11    19   am
    22    12    13    1
    23    12    43    1
    24    12    44    1
    25    13    14    1
    26    13    45    1
    27    13    46    1
    28    14    15    1
    29    14    47    1
    30    14    48    1
    31    15    16    1
    32    15    49    1
    33    15    50    1
    34    16    51    1
    35    16    52    1
    36    17    18    1
    37    17    31    1
    38    18    19    1
    39    18    21    1
    40    18    53    1
    41    19    20    2
    42    21    22    1
    43    21    54    1
    44    21    55    1
    45    22    23    2
    46    22    24    1
    47    23    25    1
    48    23    56    1
    49    24    26    2
    50    24    57    1
    51    25    27    2
    52    25    58    1
    53    26    27    1
    54    26    59    1
    55    27    28    1
    56    28    29    2
    57    28    30    1
    58    29    32    1
    59    29    35    1
    60    30    33    1
    61    30    34    1
@<TRIPOS>SUBSTRUCTURE
     1 RES1        1 GROUP             0 ****  ****    0  
